2
R0102 1 2 1
C0202 2 0 1
I0203 1 0 5 0 2
.AC DEC 100 100 100000